REMARK  9 active torsions:
REMARK  status: ('A' for Active; 'I' for Inactive)
REMARK    1  A    between atoms: O1_1  and  C4_9 
REMARK    2  A    between atoms: O1_1  and  C7_12 
REMARK    3  A    between atoms: O2_2  and  C2_7 
REMARK    4  A    between atoms: N1_4  and  C1_6 
REMARK    5  A    between atoms: N1_4  and  C3_8 
REMARK       I    between atoms: N2_5  and  C14_19 
REMARK    6  A    between atoms: C1_6  and  C2_7 
REMARK    7  A    between atoms: C2_7  and  C4_9 
REMARK    8  A    between atoms: C8_13  and  C13_18 
REMARK    9  A    between atoms: C13_18  and  C14_19 
ROOT
HETATM    1  C7  UNL     1       0.114  -0.895  -0.192  1.00  0.00     0.068 A 
HETATM    2  C8  UNL     1       2.546   0.409   0.158  1.00  0.00    -0.049 A 
HETATM    3  C9  UNL     1       0.650  -0.146  -1.234  1.00  0.00     0.037 A 
HETATM    4  C10 UNL     1       0.782  -0.998   1.023  1.00  0.00     0.037 A 
HETATM    5  C11 UNL     1       1.870   0.508  -1.058  1.00  0.00     0.010 A 
HETATM    6  C12 UNL     1       2.002  -0.344   1.198  1.00  0.00     0.010 A 
ENDROOT
BRANCH   1   7
HETATM    7  O1  UNL     1      -1.083  -1.538  -0.366  1.00  0.00    -0.349 OA
BRANCH   7   8
HETATM    8  C4  UNL     1      -1.890  -1.711   0.795  1.00  0.00     0.209 C 
BRANCH   8   9
HETATM    9  C2  UNL     1      -3.360  -1.700   0.379  1.00  0.00     0.170 C 
BRANCH   9  10
HETATM   10  O2  UNL     1      -3.575  -2.756  -0.562  1.00  0.00    -0.392 OA
HETATM   11  H14 UNL     1      -4.522  -2.764  -0.781  1.00  0.00     0.210 HD
ENDBRANCH   9  10
BRANCH   9  12
HETATM   12  C1  UNL     1      -3.796  -0.385  -0.269  1.00  0.00     0.303 C 
BRANCH  12  13
HETATM   13  N1  UNL     1      -3.577   0.758   0.608  1.00  0.00     0.089 N 
HETATM   14  H5  UNL     1      -4.117   0.642   1.464  1.00  0.00     0.316 HD
BRANCH  13  15
HETATM   15  C3  UNL     1      -3.947   2.001  -0.054  1.00  0.00     0.212 C 
HETATM   16  C5  UNL     1      -3.752   3.167   0.910  1.00  0.00     0.042 C 
HETATM   17  C6  UNL     1      -3.120   2.193  -1.322  1.00  0.00     0.042 C 
ENDBRANCH  13  15
ENDBRANCH  12  13
ENDBRANCH   9  12
ENDBRANCH   8   9
ENDBRANCH   7   8
ENDBRANCH   1   7
BRANCH   2  18
HETATM   18  C13 UNL     1       3.849   1.109   0.346  1.00  0.00     0.141 C 
BRANCH  18  19
HETATM   19  C14 UNL     1       5.057   0.271  -0.040  1.00  0.00     0.219 C 
HETATM   20  O3  UNL     1       4.978  -0.856  -0.523  1.00  0.00    -0.273 OA
HETATM   21  N2  UNL     1       6.252   0.913   0.204  1.00  0.00    -0.370 N 
HETATM   22  H21 UNL     1       7.138   0.467  -0.009  1.00  0.00     0.159 HD
HETATM   23  H22 UNL     1       6.294   1.846   0.602  1.00  0.00     0.159 HD
ENDBRANCH  18  19
ENDBRANCH   2  18
TORSDOF 9
