REMARK  13 active torsions:
REMARK  status: ('A' for Active; 'I' for Inactive)
REMARK    1  A    between atoms: O1_1  and  C4_9 
REMARK    2  A    between atoms: O1_1  and  C7_12 
REMARK    3  A    between atoms: O2_2  and  C2_7 
REMARK    4  A    between atoms: O3_3  and  C9_14 
REMARK    5  A    between atoms: O3_3  and  C13_18 
REMARK    6  A    between atoms: O4_4  and  C10_15 
REMARK    7  A    between atoms: O4_4  and  C14_19 
REMARK    8  A    between atoms: N1_5  and  C1_6 
REMARK    9  A    between atoms: N1_5  and  C3_8 
REMARK   10  A    between atoms: C1_6  and  C2_7 
REMARK   11  A    between atoms: C2_7  and  C4_9 
REMARK   12  A    between atoms: C8_13  and  C9_14 
REMARK   13  A    between atoms: C13_18  and  C14_19 
ROOT
HETATM    1  C7  UNL     1       1.912   1.630  -0.312  1.00  0.00     0.068 A 
HETATM    2  C8  UNL     1      -0.806   2.217  -0.241  1.00  0.00    -0.034 A 
HETATM    3  C11 UNL     1       1.127   1.397  -1.436  1.00  0.00     0.037 A 
HETATM    4  C12 UNL     1       1.350   2.154   0.848  1.00  0.00     0.037 A 
HETATM    5  C15 UNL     1      -0.236   1.691  -1.400  1.00  0.00     0.012 A 
HETATM    6  C16 UNL     1      -0.013   2.448   0.883  1.00  0.00     0.012 A 
ENDROOT
BRANCH   1   7
HETATM    7  O1  UNL     1       3.250   1.340  -0.347  1.00  0.00    -0.349 OA
BRANCH   7   8
HETATM    8  C4  UNL     1       3.855   0.962   0.885  1.00  0.00     0.209 C 
BRANCH   8   9
HETATM    9  C2  UNL     1       5.002  -0.005   0.595  1.00  0.00     0.170 C 
BRANCH   9  10
HETATM   10  O2  UNL     1       5.941   0.648  -0.264  1.00  0.00    -0.392 OA
HETATM   11  H14 UNL     1       6.686   0.037  -0.401  1.00  0.00     0.210 HD
ENDBRANCH   9  10
BRANCH   9  12
HETATM   12  C1  UNL     1       4.547  -1.296  -0.089  1.00  0.00     0.303 C 
BRANCH  12  13
HETATM   13  N1  UNL     1       3.554  -2.013   0.699  1.00  0.00     0.089 N 
HETATM   14  H5  UNL     1       3.951  -2.266   1.604  1.00  0.00     0.316 HD
BRANCH  13  15
HETATM   15  C3  UNL     1       3.098  -3.207   0.001  1.00  0.00     0.212 C 
HETATM   16  C5  UNL     1       2.099  -3.957   0.877  1.00  0.00     0.042 C 
HETATM   17  C6  UNL     1       2.476  -2.830  -1.340  1.00  0.00     0.042 C 
ENDBRANCH  13  15
ENDBRANCH  12  13
ENDBRANCH   9  12
ENDBRANCH   8   9
ENDBRANCH   7   8
ENDBRANCH   1   7
BRANCH   2  18
HETATM   18  C9  UNL     1      -2.263   2.531  -0.203  1.00  0.00     0.206 C 
BRANCH  18  19
HETATM   19  O3  UNL     1      -2.982   1.389   0.246  1.00  0.00    -0.385 OA
BRANCH  19  20
HETATM   20  C13 UNL     1      -4.379   1.641   0.299  1.00  0.00     0.194 C 
BRANCH  20  21
HETATM   21  C14 UNL     1      -5.091   0.384   0.761  1.00  0.00     0.194 C 
BRANCH  21  22
HETATM   22  O4  UNL     1      -4.840  -0.661  -0.172  1.00  0.00    -0.385 OA
BRANCH  22  23
HETATM   23  C10 UNL     1      -5.485  -1.867   0.211  1.00  0.00     0.113 C 
HETATM   24  C17 UNL     1      -5.129  -2.963  -0.783  1.00  0.00     0.039 C 
HETATM   25  C18 UNL     1      -6.986  -1.631   0.282  1.00  0.00     0.039 C 
ENDBRANCH  22  23
ENDBRANCH  21  22
ENDBRANCH  20  21
ENDBRANCH  19  20
ENDBRANCH  18  19
ENDBRANCH   2  18
TORSDOF 13
