REMARK  5 active torsions:
REMARK  status: ('A' for Active; 'I' for Inactive)
REMARK    1  A    between atoms: S1_1  and  C16_24 
REMARK    2  A    between atoms: S1_1  and  C22_30 
REMARK    3  A    between atoms: O1_5  and  C5_13 
REMARK    4  A    between atoms: O2_6  and  C9_17 
REMARK    5  A    between atoms: C5_13  and  C16_24 
ROOT
HETATM    1  F1  UNL     1      -1.399  -0.273   1.279  1.00  0.00    -0.238 F 
HETATM    2  F2  UNL     1      -3.907   2.788  -0.500  1.00  0.00    -0.245 F 
HETATM    3  O4  UNL     1      -6.201  -0.948   1.699  1.00  0.00    -0.289 OA
HETATM    4  C1  UNL     1       1.719   0.127  -0.280  1.00  0.00     0.002 C 
HETATM    5  C2  UNL     1       0.646   1.199   0.005  1.00  0.00     0.005 C 
HETATM    6  C3  UNL     1      -0.715   0.900  -0.644  1.00  0.00     0.037 C 
HETATM    7  C4  UNL     1      -1.258  -0.461  -0.089  1.00  0.00     0.147 C 
HETATM    8  C5  UNL     1       2.921   0.771   0.476  1.00  0.00     0.139 C 
HETATM    9  C6  UNL     1       1.350   2.514  -0.325  1.00  0.00     0.013 C 
HETATM   10  C7  UNL     1       1.203  -1.212   0.289  1.00  0.00     0.048 C 
HETATM   11  C8  UNL     1       2.826   2.281   0.096  1.00  0.00     0.025 C 
HETATM   12  C9  UNL     1      -0.206  -1.605  -0.211  1.00  0.00     0.160 C 
HETATM   13  C10 UNL     1      -2.712  -0.787  -0.616  1.00  0.00     0.039 A 
HETATM   14  C11 UNL     1      -1.702   2.046  -0.363  1.00  0.00     0.050 C 
HETATM   15  C12 UNL     1       2.048  -0.024  -1.790  1.00  0.00     0.019 C 
HETATM   16  C13 UNL     1      -3.106   1.744  -0.868  1.00  0.00     0.201 C 
HETATM   17  C14 UNL     1      -3.596   0.431  -0.311  1.00  0.00    -0.027 A 
HETATM   18  C15 UNL     1       3.270   3.248   1.190  1.00  0.00     0.013 C 
HETATM   19  C17 UNL     1      -2.780  -1.061  -2.136  1.00  0.00     0.028 C 
HETATM   20  C18 UNL     1      -3.244  -2.040   0.065  1.00  0.00    -0.006 A 
HETATM   21  C19 UNL     1      -4.711   0.370   0.434  1.00  0.00     0.061 A 
HETATM   22  C20 UNL     1      -4.353  -2.103   0.809  1.00  0.00     0.052 A 
HETATM   23  C21 UNL     1      -5.173  -0.899   1.032  1.00  0.00     0.172 A 
ENDROOT
BRANCH   8  24
HETATM   24  O1  UNL     1       2.870   0.552   1.881  1.00  0.00    -0.380 OA
HETATM   25  H22 UNL     1       2.954  -0.399   2.058  1.00  0.00     0.211 HD
ENDBRANCH   8  24
BRANCH   8  26
HETATM   26  C16 UNL     1       4.253   0.186   0.119  1.00  0.00     0.223 C 
HETATM   27  O3  UNL     1       5.148   0.835  -0.409  1.00  0.00    -0.282 OA
BRANCH  26  28
HETATM   28  S1  UNL     1       4.411  -1.521   0.531  1.00  0.00    -0.058 SA
BRANCH  28  29
HETATM   29  C22 UNL     1       6.094  -1.841  -0.037  1.00  0.00     0.304 C 
HETATM   30  F3  UNL     1       6.422  -3.135   0.221  1.00  0.00    -0.244 F 
ENDBRANCH  28  29
ENDBRANCH  26  28
ENDBRANCH   8  26
BRANCH  12  31
HETATM   31  O2  UNL     1      -0.117  -2.081  -1.546  1.00  0.00    -0.392 OA
HETATM   32  H23 UNL     1      -0.582  -2.934  -1.586  1.00  0.00     0.210 HD
ENDBRANCH  12  31
TORSDOF 5
