REMARK  6 active torsions:
REMARK  status: ('A' for Active; 'I' for Inactive)
REMARK    1  A    between atoms: O2_2  and  C1_7 
REMARK    2  A    between atoms: O3_3  and  C2_8 
REMARK    3  A    between atoms: O4_4  and  C5_11 
REMARK    4  A    between atoms: O5_5  and  C6_12 
REMARK    5  A    between atoms: N1_6  and  C3_9 
REMARK    6  A    between atoms: C4_10  and  C6_12 
ROOT
HETATM    1  O1  UNL     1       0.691   1.147  -0.253  1.00  0.00    -0.349 OA
HETATM    2  C1  UNL     1      -1.091  -1.058   0.200  1.00  0.00     0.187 C 
HETATM    3  C2  UNL     1       0.365  -1.256  -0.233  1.00  0.00     0.180 C 
HETATM    4  C3  UNL     1      -1.596   0.336  -0.186  1.00  0.00     0.303 C 
HETATM    5  C4  UNL     1       1.232  -0.083   0.235  1.00  0.00     0.179 C 
HETATM    6  C5  UNL     1      -0.612   1.422   0.264  1.00  0.00     0.292 C 
ENDROOT
BRANCH   4   7
HETATM    7  N1  UNL     1      -2.912   0.568   0.418  1.00  0.00     0.090 N 
HETATM    8  H8  UNL     1      -2.836   0.534   1.434  1.00  0.00     0.313 HD
HETATM    9  H9  UNL     1      -3.543  -0.188   0.157  1.00  0.00     0.313 HD
ENDBRANCH   4   7
BRANCH   2  10
HETATM   10  O2  UNL     1      -1.902  -2.039  -0.449  1.00  0.00    -0.391 OA
HETATM   11  H10 UNL     1      -1.828  -1.905  -1.409  1.00  0.00     0.210 HD
ENDBRANCH   2  10
BRANCH   6  12
HETATM   12  O4  UNL     1      -1.062   2.680  -0.237  1.00  0.00    -0.369 OA
HETATM   13  H12 UNL     1      -0.688   3.367   0.340  1.00  0.00     0.212 HD
ENDBRANCH   6  12
BRANCH   3  14
HETATM   14  O3  UNL     1       0.832  -2.477   0.334  1.00  0.00    -0.390 OA
HETATM   15  H11 UNL     1       1.680  -2.694  -0.088  1.00  0.00     0.210 HD
ENDBRANCH   3  14
BRANCH   5  16
HETATM   16  C6  UNL     1       2.664  -0.182  -0.280  1.00  0.00     0.198 C 
BRANCH  16  17
HETATM   17  O5  UNL     1       3.390   0.941   0.187  1.00  0.00    -0.398 OA
HETATM   18  H13 UNL     1       2.939   1.739  -0.137  1.00  0.00     0.209 HD
ENDBRANCH  16  17
ENDBRANCH   5  16
TORSDOF 6
