REMARK  7 active torsions:
REMARK  status: ('A' for Active; 'I' for Inactive)
REMARK    1  A    between atoms: S1_1  and  C5_14 
REMARK    2  A    between atoms: S1_1  and  C9_18 
REMARK    3  A    between atoms: O2_3  and  C7_16 
REMARK    4  A    between atoms: O3_4  and  C14_23 
REMARK       I    between atoms: N3_9  and  C15_24 
REMARK    5  A    between atoms: C2_11  and  C7_16 
REMARK    6  A    between atoms: C6_15  and  C14_23 
REMARK    7  A    between atoms: C13_22  and  C15_24 
ROOT
HETATM    1  O1  UNL     1      -4.547  -1.852  -0.102  1.00  0.00    -0.279 OA
HETATM    2  N1  UNL     1      -2.626  -0.527  -0.447  1.00  0.00    -0.206 NA
HETATM    3  C1  UNL     1      -2.701   0.918  -0.149  1.00  0.00     0.095 A 
HETATM    4  C2  UNL     1      -4.219   0.673   0.119  1.00  0.00     0.120 A 
HETATM    5  C3  UNL     1      -1.569   1.145   0.876  1.00  0.00     0.043 C 
HETATM    6  C4  UNL     1      -3.929  -0.814  -0.178  1.00  0.00     0.213 A 
HETATM    7  C5  UNL     1      -0.860  -0.199   0.886  1.00  0.00     0.013 C 
HETATM    8  C6  UNL     1      -1.533  -1.089   0.144  1.00  0.00     0.105 C 
HETATM    9  C8  UNL     1      -2.046   1.611   2.242  1.00  0.00     0.017 C 
ENDROOT
BRANCH   7  10
HETATM   10  S1  UNL     1       0.593  -0.478   1.758  1.00  0.00    -0.125 SA
BRANCH  10  11
HETATM   11  C9  UNL     1       1.682   0.728   0.957  1.00  0.00     0.083 C 
HETATM   12  C10 UNL     1       3.108   0.706   1.500  1.00  0.00     0.062 C 
HETATM   13  C13 UNL     1       3.979   1.041   0.290  1.00  0.00     0.312 C 
HETATM   14  N2  UNL     1       3.075   1.215  -0.857  1.00  0.00     0.098 N 
HETATM   15  C12 UNL     1       1.862   0.453  -0.525  1.00  0.00     0.286 C 
HETATM   16  H17 UNL     1       3.486   0.894  -1.732  1.00  0.00     0.317 HD
BRANCH  13  17
HETATM   17  C15 UNL     1       4.911  -0.076  -0.060  1.00  0.00     0.252 C 
HETATM   18  O5  UNL     1       4.608  -1.232   0.246  1.00  0.00    -0.271 OA
HETATM   19  N3  UNL     1       6.087   0.275  -0.725  1.00  0.00    -0.359 N 
HETATM   20  C16 UNL     1       7.081  -0.713  -1.124  1.00  0.00     0.152 C 
HETATM   21  C17 UNL     1       6.407   1.658  -1.069  1.00  0.00     0.152 C 
ENDBRANCH  13  17
ENDBRANCH  10  11
ENDBRANCH   7  10
BRANCH   8  22
HETATM   22  C14 UNL     1      -1.242  -2.507  -0.043  1.00  0.00     0.189 C 
HETATM   23  O4  UNL     1      -0.703  -3.222   0.787  1.00  0.00    -0.645 OA
BRANCH  22  24
HETATM   24  O3  UNL     1      -1.659  -2.903  -1.266  1.00  0.00    -0.772 OA
HETATM   25  H19 UNL     1      -1.479  -3.854  -1.426  1.00  0.00     0.167 HD
ENDBRANCH  22  24
ENDBRANCH   8  22
BRANCH   4  26
HETATM   26  C7  UNL     1      -5.303   1.280  -0.735  1.00  0.00     0.128 C 
HETATM   27  C11 UNL     1      -5.503   2.757  -0.410  1.00  0.00     0.040 C 
BRANCH  26  28
HETATM   28  O2  UNL     1      -4.952   1.153  -2.114  1.00  0.00    -0.395 OA
HETATM   29  H18 UNL     1      -5.675   1.540  -2.637  1.00  0.00     0.210 HD
ENDBRANCH  26  28
ENDBRANCH   4  26
TORSDOF 7
