REMARK  12 active torsions:
REMARK  status: ('A' for Active; 'I' for Inactive)
REMARK    1  A    between atoms: O1_1  and  C4_10 
REMARK    2  A    between atoms: O1_1  and  C6_12 
REMARK    3  A    between atoms: O2_2  and  C5_11 
REMARK    4  A    between atoms: O2_2  and  C7_13 
REMARK    5  A    between atoms: N1_3  and  C18_24 
REMARK    6  A    between atoms: N2_4  and  C19_25 
REMARK    7  A    between atoms: C1_7  and  C2_8 
REMARK    8  A    between atoms: C1_7  and  C3_9 
REMARK    9  A    between atoms: C2_8  and  C4_10 
REMARK   10  A    between atoms: C3_9  and  C5_11 
REMARK   11  A    between atoms: C12_18  and  C18_24 
REMARK   12  A    between atoms: C13_19  and  C19_25 
ROOT
HETATM    1  C1  UNL     1      -0.004   1.024  -0.751  1.00  0.00     0.004 C 
ENDROOT
BRANCH   1   2
HETATM    2  C2  UNL     1       1.255   1.640  -0.133  1.00  0.00     0.027 C 
BRANCH   2   3
HETATM    3  C4  UNL     1       2.532   1.052  -0.722  1.00  0.00     0.175 C 
BRANCH   3   4
HETATM    4  O1  UNL     1       3.667   1.642  -0.103  1.00  0.00    -0.351 OA
BRANCH   4   5
HETATM    5  C6  UNL     1       4.795   0.868  -0.013  1.00  0.00     0.068 A 
HETATM    6  C8  UNL     1       5.054  -0.103  -0.980  1.00  0.00     0.037 A 
HETATM    7  C14 UNL     1       6.203  -0.889  -0.890  1.00  0.00     0.018 A 
HETATM    8  C12 UNL     1       7.093  -0.704   0.168  1.00  0.00     0.009 A 
HETATM    9  C16 UNL     1       6.834   0.268   1.135  1.00  0.00     0.018 A 
HETATM   10  C10 UNL     1       5.685   1.054   1.045  1.00  0.00     0.037 A 
BRANCH   8  11
HETATM   11  C18 UNL     1       8.291  -1.522   0.263  1.00  0.00     0.123 C 
HETATM   12  N3  UNL     1       8.536  -2.439  -0.657  1.00  0.00    -0.284 NA
HETATM   13  H23 UNL     1       9.418  -2.906  -0.420  1.00  0.00     0.188 HD
BRANCH  11  14
HETATM   14  N1  UNL     1       9.199  -1.361   1.307  1.00  0.00    -0.384 N 
HETATM   15  H19 UNL     1      10.031  -1.941   1.355  1.00  0.00     0.157 HD
HETATM   16  H20 UNL     1       9.089  -0.683   2.052  1.00  0.00     0.157 HD
ENDBRANCH  11  14
ENDBRANCH   8  11
ENDBRANCH   4   5
ENDBRANCH   3   4
ENDBRANCH   2   3
ENDBRANCH   1   2
BRANCH   1  17
HETATM   17  C3  UNL     1      -1.270   1.651  -0.171  1.00  0.00     0.027 C 
BRANCH  17  18
HETATM   18  C5  UNL     1      -2.527   1.016  -0.747  1.00  0.00     0.175 C 
BRANCH  18  19
HETATM   19  O2  UNL     1      -3.664   1.631  -0.158  1.00  0.00    -0.351 OA
BRANCH  19  20
HETATM   20  C7  UNL     1      -4.794   0.863  -0.044  1.00  0.00     0.068 A 
HETATM   21  C9  UNL     1      -5.690   1.092   0.999  1.00  0.00     0.037 A 
HETATM   22  C15 UNL     1      -6.841   0.312   1.114  1.00  0.00     0.018 A 
HETATM   23  C13 UNL     1      -7.095  -0.697   0.185  1.00  0.00     0.009 A 
HETATM   24  C17 UNL     1      -6.198  -0.926  -0.859  1.00  0.00     0.018 A 
HETATM   25  C11 UNL     1      -5.048  -0.146  -0.974  1.00  0.00     0.037 A 
BRANCH  23  26
HETATM   26  C19 UNL     1      -8.295  -1.510   0.304  1.00  0.00     0.123 C 
HETATM   27  N4  UNL     1      -9.145  -1.289   1.291  1.00  0.00    -0.284 NA
HETATM   28  H24 UNL     1      -9.920  -1.956   1.204  1.00  0.00     0.188 HD
BRANCH  26  29
HETATM   29  N2  UNL     1      -8.576  -2.525  -0.609  1.00  0.00    -0.384 N 
HETATM   30  H21 UNL     1      -9.420  -3.081  -0.510  1.00  0.00     0.157 HD
HETATM   31  H22 UNL     1      -7.980  -2.761  -1.393  1.00  0.00     0.157 HD
ENDBRANCH  26  29
ENDBRANCH  23  26
ENDBRANCH  19  20
ENDBRANCH  18  19
ENDBRANCH  17  18
ENDBRANCH   1  17
TORSDOF 12
