REMARK  6 active torsions:
REMARK  status: ('A' for Active; 'I' for Inactive)
REMARK    1  A    between atoms: O2_4  and  C15_21 
REMARK    2  A    between atoms: O2_4  and  C19_25 
REMARK    3  A    between atoms: N1_6  and  C5_11 
REMARK    4  A    between atoms: C1_7  and  C4_10 
REMARK    5  A    between atoms: C4_10  and  C5_11 
REMARK    6  A    between atoms: C5_11  and  C8_14 
ROOT
HETATM    1  S1  UNL     1       3.593  -2.113  -0.138  1.00  0.00    -0.069 SA
HETATM    2  N1  UNL     1      -0.483  -0.297  -0.120  1.00  0.00     0.109 N 
HETATM    3  C6  UNL     1      -0.370  -1.498   0.734  1.00  0.00     0.279 C 
HETATM    4  C7  UNL     1       0.664   0.619   0.073  1.00  0.00     0.313 C 
HETATM    5  C9  UNL     1       0.833  -2.367   0.316  1.00  0.00     0.077 C 
HETATM    6  C10 UNL     1       1.953  -0.130  -0.082  1.00  0.00    -0.014 A 
HETATM    7  C11 UNL     1       2.022  -1.501   0.058  1.00  0.00    -0.005 A 
HETATM    8  C12 UNL     1       3.240   0.426  -0.350  1.00  0.00     0.055 A 
HETATM    9  C15 UNL     1       4.221  -0.542  -0.408  1.00  0.00     0.121 A 
ENDROOT
BRANCH   2  10
HETATM   10  C5  UNL     1      -1.737   0.407   0.148  1.00  0.00     0.328 C 
BRANCH  10  11
HETATM   11  C4  UNL     1      -1.790   1.638  -0.742  1.00  0.00     0.169 C 
HETATM   12  O1  UNL     1      -1.869   1.612  -1.965  1.00  0.00    -0.295 OA
BRANCH  11  13
HETATM   13  C1  UNL     1      -1.757   2.955  -0.035  1.00  0.00     0.058 A 
HETATM   14  C2  UNL     1      -2.852   3.928  -0.303  1.00  0.00     0.013 A 
HETATM   15  C3  UNL     1      -2.778   3.218   1.017  1.00  0.00     0.013 A 
ENDBRANCH  11  13
ENDBRANCH  10  11
BRANCH  10  16
HETATM   16  C8  UNL     1      -2.949  -0.481  -0.033  1.00  0.00     0.021 A 
HETATM   17  C13 UNL     1      -3.784  -0.719   1.045  1.00  0.00     0.125 A 
HETATM   18  F1  UNL     1      -3.538  -0.177   2.246  1.00  0.00    -0.205 F 
HETATM   19  C16 UNL     1      -4.900  -1.538   0.875  1.00  0.00     0.043 A 
HETATM   20  C18 UNL     1      -5.163  -2.107  -0.371  1.00  0.00     0.003 A 
HETATM   21  C17 UNL     1      -4.311  -1.857  -1.447  1.00  0.00     0.001 A 
HETATM   22  C14 UNL     1      -3.195  -1.038  -1.276  1.00  0.00     0.013 A 
ENDBRANCH  10  16
ENDBRANCH   2  10
BRANCH   9  23
HETATM   23  O2  UNL     1       5.519  -0.373  -0.641  1.00  0.00    -0.272 OA
BRANCH  23  24
HETATM   24  C19 UNL     1       6.156   0.424   0.264  1.00  0.00     0.260 C 
HETATM   25  O3  UNL     1       5.670   0.974   1.244  1.00  0.00    -0.265 OA
HETATM   26  C20 UNL     1       7.606   0.534  -0.109  1.00  0.00     0.126 C 
ENDBRANCH  23  24
ENDBRANCH   9  23
TORSDOF 6
